Circuit: * C:\Users\48532\Desktop\Pliki_praca_dyplomowa\scehmaty_symulacyjne\CMRR_UKLADU.asc

Instance "m:u5:6": Length shorter than recommended for a level 2 MOSFET.
Instance "m:u5:5": Length shorter than recommended for a level 2 MOSFET.
Instance "m:u5:4": Length shorter than recommended for a level 2 MOSFET.
Instance "m:u5:3": Length shorter than recommended for a level 2 MOSFET.
Instance "m:u5:2": Length shorter than recommended for a level 2 MOSFET.
Instance "m:u5:1": Length shorter than recommended for a level 2 MOSFET.
Instance "m:u4:6": Length shorter than recommended for a level 2 MOSFET.
Instance "m:u4:5": Length shorter than recommended for a level 2 MOSFET.
Instance "m:u4:4": Length shorter than recommended for a level 2 MOSFET.
Instance "m:u4:3": Length shorter than recommended for a level 2 MOSFET.
Instance "m:u4:2": Length shorter than recommended for a level 2 MOSFET.
Instance "m:u4:1": Length shorter than recommended for a level 2 MOSFET.
Instance "m:u1:6": Length shorter than recommended for a level 2 MOSFET.
Instance "m:u1:5": Length shorter than recommended for a level 2 MOSFET.
Instance "m:u1:4": Length shorter than recommended for a level 2 MOSFET.
Instance "m:u1:3": Length shorter than recommended for a level 2 MOSFET.
Instance "m:u1:2": Length shorter than recommended for a level 2 MOSFET.
Instance "m:u1:1": Length shorter than recommended for a level 2 MOSFET.
Direct Newton iteration failed to find .op point.  (Use ".option noopiter" to skip.)
Starting Gmin stepping
Gmin = 10
Gmin = 1.07374
Gmin = 0.115292
Gmin = 0.0123794
Gmin = 0.00132923
vernier = 0.5
vernier = 0.25
vernier = 0.125
vernier = 0.0625
Gmin = 0.00100083
vernier = 0.03125
vernier = 0.015625
vernier = 0.0078125
vernier = 0.00390625
vernier = 0.00195313
Gmin = 0.00100083
vernier = 0.000976563
vernier = 0.000488281
Gmin = 0
Gmin stepping failed

Starting source stepping with srcstepmethod=0
Source Step = 3.0303%
Source Step = 16.0038%
Source Step = 16.4773%
Source Step = 16.9508%
Source Step = 17.4242%
Source Step = 17.8977%
vernier = 0.0234375
Source Step = 18.3949%
Source Step = 19.1051%
Source Step = 19.8153%
Source Step = 20.5256%
Source Step = 21.2358%
Source Step = 21.946%
vernier = 0.0351563
Source Step = 23.0114%
Source Step = 23.564%
Source Step = 23.6306%
Source Step = 23.6972%
Source Step = 23.7638%
Source Step = 23.8303%
vernier = 0.0032959
Source Step = 23.9003%
Source Step = 24.0001%
Source Step = 24.1%
Source Step = 24.1999%
Source Step = 24.2998%
Source Step = 24.3996%
vernier = 0.00494385
Source Step = 24.5494%
Source Step = 24.6993%
Source Step = 24.8491%
Source Step = 24.9989%
Source Step = 25.1487%
vernier = 0.00741577
Source Step = 25.3659%
Source Step = 25.5907%
Source Step = 25.8154%
Source Step = 26.0401%
Source Step = 26.2648%
vernier = 0.0111237
Source Step = 26.5794%
Source Step = 26.9165%
Source Step = 27.2536%
Source Step = 27.5907%
Source Step = 27.9277%
vernier = 0.0166855
Source Step = 28.3828%
Source Step = 28.8884%
Source Step = 29.394%
Source Step = 29.8997%
Source Step = 30.4053%
vernier = 0.0250282
Source Step = 31.0626%
Source Step = 31.821%
Source Step = 32.5795%
Source Step = 33.3379%
Source Step = 34.0963%
vernier = 0.0375423
Source Step = 35.0444%
Source Step = 36.182%
Source Step = 37.3197%
Source Step = 38.4573%
Source Step = 39.5949%
vernier = 0.0563135
Source Step = 40.9601%
Source Step = 41.6907%
Source Step = 41.7174%
Source Step = 41.744%
Source Step = 41.7707%
Source Step = 41.7974%
Source Step = 41.824%
vernier = 0.00131985
Source Step = 41.864%
Source Step = 41.904%
Source Step = 41.944%
Source Step = 41.984%
Source Step = 42.024%
vernier = 0.00197977
Source Step = 42.082%
Source Step = 42.142%
Source Step = 42.202%
Source Step = 42.262%
Source Step = 42.322%
vernier = 0.00296966
Source Step = 42.406%
Source Step = 42.4959%
Source Step = 42.5859%
Source Step = 42.6759%
Source Step = 42.7659%
vernier = 0.00445449
Source Step = 42.8874%
Source Step = 43.0224%
Source Step = 43.1574%
Source Step = 43.2924%
Source Step = 43.4273%
vernier = 0.00668173
Source Step = 43.6028%
Source Step = 43.8053%
Source Step = 44.0078%
Source Step = 44.2102%
Source Step = 44.4127%
vernier = 0.0100226
Source Step = 44.6658%
Source Step = 44.9695%
Source Step = 45.2732%
Source Step = 45.577%
Source Step = 45.8807%
vernier = 0.0150339
Source Step = 46.2451%
Source Step = 46.7007%
Source Step = 47.1563%
Source Step = 47.6119%
Source Step = 48.0674%
vernier = 0.0225508
Source Step = 48.5913%
Source Step = 49.2747%
Source Step = 49.9581%
Source Step = 50.6414%
Source Step = 51.3248%
vernier = 0.0338263
Source Step = 52.0765%
Source Step = 53.1015%
Source Step = 54.1265%
Source Step = 55.1516%
Source Step = 56.1766%
vernier = 0.0507394
Source Step = 57.2529%
Source Step = 58.7905%
Source Step = 60.328%
Source Step = 61.8656%
Source Step = 63.4031%
Source Step = 64.9407%
vernier = 0.0761091
Source Step = 67.247%
Source Step = 69.5534%
Source Step = 71.8597%
Source Step = 74.166%
Source Step = 76.4724%
vernier = 0.114164
Source Step = 79.8166%
Source Step = 83.2761%
Source Step = 86.7356%
Source Step = 90.1951%
Source Step = 90.2329%
Source Step = 90.287%
Source Step = 90.341%
Source Step = 90.3951%
Source Step = 90.4491%
vernier = 0.00267571
Source Step = 90.5086%
Source Step = 90.5897%
Source Step = 90.6708%
Source Step = 90.7518%
Source Step = 90.8329%
vernier = 0.00401357
Source Step = 90.9181%
Source Step = 91.0397%
Source Step = 91.1613%
Source Step = 91.2829%
Source Step = 91.4045%
Source Step = 91.5262%
vernier = 0.00602035
Source Step = 91.7086%
Source Step = 91.891%
Source Step = 92.0735%
Source Step = 92.2559%
Source Step = 92.4383%
vernier = 0.00903052
Source Step = 92.5113%
Source Step = 92.5797%
Source Step = 92.6481%
Source Step = 92.7166%
Source Step = 92.785%
vernier = 0.00338645
Source Step = 92.8739%
Source Step = 92.9765%
Source Step = 93.0791%
Source Step = 93.1818%
Source Step = 93.2844%
vernier = 0.00507967
Source Step = 93.4127%
Source Step = 93.5666%
Source Step = 93.7205%
Source Step = 93.8744%
Source Step = 94.0284%
vernier = 0.0076195
Source Step = 94.1381%
Source Step = 94.1958%
Source Step = 94.2535%
Source Step = 94.3112%
Source Step = 94.3689%
Source Step = 94.4267%
vernier = 0.00285731
Source Step = 94.5133%
Source Step = 94.5998%
Source Step = 94.6864%
Source Step = 94.773%
Source Step = 94.8596%
vernier = 0.00428597
Source Step = 94.9851%
Source Step = 95.115%
Source Step = 95.2449%
Source Step = 95.3748%
Source Step = 95.5047%
vernier = 0.00642896
Source Step = 95.6865%
Source Step = 95.8813%
Source Step = 96.0761%
Source Step = 96.2709%
Source Step = 96.4658%
vernier = 0.00964343
Source Step = 96.7288%
Source Step = 97.021%
Source Step = 97.3132%
Source Step = 97.6054%
Source Step = 97.8977%
vernier = 0.0144651
Source Step = 98.2776%
Source Step = 98.7159%
Source Step = 99.1542%
Source Step = 99.5926%
Source Step = 100%
vernier = 0.00361629
Source Step = 100%
Source Step = 100%
Source Step = 100%
Source Step = 100%
Source Step = 100%
Source Step = 100%
Source Step = 100%
Source Step = 100%
Source Step = 100%
Source Step = 100%
Source Step = 100%
Source Step = 100%
Source Step = 100%
Source Step = 100%
Source Step = 100%
Source Step = 100%
Source Step = 100%
Source Step = 100%
Source Step = 100%
Source Step = 100%
Source Step = 100%
Source Step = 100%
Source Step = 100%
Source Step = 100%
Source Step = 100%
Source Step = 100%
Source Step = 100%
Source Step = 100%
Source Step = 100%
Source Step = 100%
Source Step = 100%
Source Step = 100%
Source Step = 100%
Source Step = 100%
Source Step = 100%
Source Step = 100%
Source Step = 100%
Source Step = 100%
Source Step = 100%
Source Step = 100%
Source Step = 100%
Source Step = 100%
Source Step = 100%
Source Step = 100%
Source Step = 100%
Source Step = 100%
Source Step = 100%
Source Step = 100%
Source Step = 100%
Source Step = 100%
Source Step = 100%
Source Step = 100%
Source Step = 100%
Source Step = 100%
Source Step = 100%
Source Step = 100%
Source Step = 100%
Source Step = 100%
Source Step = 100%
Source Step = 100%
Source Step = 100%
Source Step = 100%
Source Step = 100%
Source Step = 100%
Source Step = 100%
Source Step = 100%
Source Step = 100%
Source Step = 100%
Source Step = 100%
Source Step = 100%
Source Step = 100%
Source Step = 100%
Source Step = 100%
Source Step = 100%
Source Step = 100%
Source Step = 100%
Source Step = 100%
Source Step = 100%
Source Step = 100%
Source Step = 100%
Source Step = 100%
Source Step = 100%
Source Step = 100%
Source Step = 100%
Source Step = 100%
Source Step = 100%
Source Step = 100%
Source Step = 100%
Source Step = 100%
Source Step = 100%
Source Step = 100%
Source Step = 100%
Source Step = 100%
Source Step = 100%
Source Step = 100%
Source stepping succeeded in finding the operating point.


Date: Sun May 07 20:55:25 2023
Total elapsed time: 58.665 seconds.

tnom = 27
temp = 27
method = modified trap
totiter = 230978
traniter = 156284
tranpoints = 78143
accept = 78143
rejected = 0
matrix size = 284
fillins = 786
solver = Alternate
Thread vector: 38.0/23.9[4] 20.7/7.4[4] 11.4/4.1[4] 3.7/1.9[3]  2592/500
Matrix Compiler1: 79.80 KB object code size  20.0/16.3/[10.7]
Matrix Compiler2: 43.05 KB object code size  9.8/10.1/[3.8]

