Circuit: * C:\Users\48532\Desktop\Pliki_praca_dyplomowa\schematy_symulacyjne\Symulacja_AC_DEC.asc

Instance "m:u5:6": Length shorter than recommended for a level 2 MOSFET.
Instance "m:u5:5": Length shorter than recommended for a level 2 MOSFET.
Instance "m:u5:4": Length shorter than recommended for a level 2 MOSFET.
Instance "m:u5:3": Length shorter than recommended for a level 2 MOSFET.
Instance "m:u5:2": Length shorter than recommended for a level 2 MOSFET.
Instance "m:u5:1": Length shorter than recommended for a level 2 MOSFET.
Instance "m:u4:6": Length shorter than recommended for a level 2 MOSFET.
Instance "m:u4:5": Length shorter than recommended for a level 2 MOSFET.
Instance "m:u4:4": Length shorter than recommended for a level 2 MOSFET.
Instance "m:u4:3": Length shorter than recommended for a level 2 MOSFET.
Instance "m:u4:2": Length shorter than recommended for a level 2 MOSFET.
Instance "m:u4:1": Length shorter than recommended for a level 2 MOSFET.
Instance "m:u1:6": Length shorter than recommended for a level 2 MOSFET.
Instance "m:u1:5": Length shorter than recommended for a level 2 MOSFET.
Instance "m:u1:4": Length shorter than recommended for a level 2 MOSFET.
Instance "m:u1:3": Length shorter than recommended for a level 2 MOSFET.
Instance "m:u1:2": Length shorter than recommended for a level 2 MOSFET.
Instance "m:u1:1": Length shorter than recommended for a level 2 MOSFET.
Direct Newton iteration failed to find .op point.  (Use ".option noopiter" to skip.)
Starting Gmin stepping
Gmin = 10
vernier = 0.5
Gmin = 1.67772
vernier = 0.25
vernier = 0.125
vernier = 0.0625
vernier = 0.03125
Gmin = 1.6391
vernier = 0.015625
vernier = 0.0078125
vernier = 0.00390625
vernier = 0.00195313
Gmin = 1.64628
vernier = 0.000976563
vernier = 0.000488281
Gmin = 0
Gmin stepping failed

Starting source stepping with srcstepmethod=0
Source Step = 3.0303%
Source Step = 18.1937%
vernier = 0.000976563
Source Step = 18.2114%
Source Step = 18.241%
Source Step = 18.2706%
Source Step = 18.3002%
Source Step = 18.3298%
vernier = 0.00146484
Source Step = 18.3697%
Source Step = 18.4141%
Source Step = 18.4585%
Source Step = 18.5029%
Source Step = 18.5473%
vernier = 0.00219727
Source Step = 18.605%
Source Step = 18.6716%
Source Step = 18.7382%
Source Step = 18.8047%
Source Step = 18.8713%
vernier = 0.0032959
Source Step = 18.9546%
Source Step = 19.0544%
Source Step = 19.1543%
Source Step = 19.2542%
Source Step = 19.3541%
vernier = 0.00494385
Source Step = 19.4739%
Source Step = 19.6237%
Source Step = 19.7735%
Source Step = 19.9234%
Source Step = 20.0732%
vernier = 0.00741577
Source Step = 20.2455%
Source Step = 20.4702%
Source Step = 20.6949%
Source Step = 20.9196%
Source Step = 21.1443%
vernier = 0.0111237
Source Step = 21.3915%
Source Step = 21.7286%
Source Step = 22.0657%
Source Step = 22.4028%
Source Step = 22.7398%
vernier = 0.0166855
Source Step = 23.0938%
Source Step = 23.5994%
Source Step = 24.105%
Source Step = 24.6106%
Source Step = 25.1163%
Source Step = 25.6219%
vernier = 0.0250282
Source Step = 26.3803%
Source Step = 27.1388%
Source Step = 27.8972%
Source Step = 28.6556%
Source Step = 29.414%
vernier = 0.0375423
Source Step = 30.5138%
Source Step = 31.6514%
Source Step = 32.7891%
Source Step = 33.9267%
Source Step = 35.0644%
vernier = 0.0563135
Source Step = 36.6571%
Source Step = 38.3635%
Source Step = 40.07%
Source Step = 41.7765%
Source Step = 43.4829%
vernier = 0.0844703
Source Step = 45.7867%
Source Step = 48.3464%
Source Step = 50.9061%
Source Step = 53.4658%
Source Step = 56.0255%
vernier = 0.126705
Source Step = 59.3531%
Source Step = 63.1927%
Source Step = 67.0322%
Source Step = 70.8718%
Source Step = 74.7113%
vernier = 0.190058
Source Step = 79.5108%
Source Step = 85.2701%
Source Step = 91.0295%
vernier = 0.0475145
Source Step = 90.5255%
Source Step = 90.6155%
Source Step = 90.7055%
Source Step = 90.7955%
Source Step = 90.8855%
vernier = 0.00445449
Source Step = 91.0025%
Source Step = 91.1375%
Source Step = 91.2724%
Source Step = 91.4074%
Source Step = 91.5424%
vernier = 0.00668173
Source Step = 91.6301%
Source Step = 91.6808%
Source Step = 91.7314%
Source Step = 91.782%
Source Step = 91.8326%
vernier = 0.00250565
Source Step = 91.8858%
Source Step = 91.9617%
Source Step = 92.0376%
Source Step = 92.1136%
Source Step = 92.1895%
Source Step = 92.2654%
vernier = 0.00375847
Source Step = 92.3793%
Source Step = 92.4932%
Source Step = 92.6071%
Source Step = 92.721%
Source Step = 92.8349%
vernier = 0.00563771
Source Step = 93%
Source Step = 93.1709%
Source Step = 93.3417%
Source Step = 93.5125%
Source Step = 93.6834%
vernier = 0.00845657
Source Step = 93.7624%
Source Step = 93.8265%
Source Step = 93.8905%
Source Step = 93.9546%
Source Step = 94.0187%
Source Step = 94.0827%
Source Step = 94.1468%
vernier = 0.00317121
Source Step = 94.2173%
Source Step = 94.3134%
Source Step = 94.4095%
Source Step = 94.5056%
Source Step = 94.6017%
vernier = 0.00475682
Source Step = 94.7026%
Source Step = 94.8467%
Source Step = 94.9908%
Source Step = 95.135%
Source Step = 95.2791%
Source Step = 95.4233%
vernier = 0.00713523
Source Step = 95.4719%
Source Step = 95.526%
Source Step = 95.58%
Source Step = 95.6341%
Source Step = 95.6882%
Source Step = 95.7422%
Source Step = 95.7963%
vernier = 0.00267571
Source Step = 95.8557%
Source Step = 95.9368%
Source Step = 96.0179%
Source Step = 96.099%
Source Step = 96.18%
vernier = 0.00401357
Source Step = 96.2652%
Source Step = 96.3868%
Source Step = 96.5084%
Source Step = 96.6301%
Source Step = 96.7517%
Source Step = 96.8733%
vernier = 0.00602035
Source Step = 96.9143%
Source Step = 96.96%
Source Step = 97.0056%
Source Step = 97.0512%
Source Step = 97.0968%
vernier = 0.00225763
Source Step = 97.1584%
Source Step = 97.2268%
Source Step = 97.2952%
Source Step = 97.3636%
Source Step = 97.432%
vernier = 0.00338645
Source Step = 97.5209%
Source Step = 97.6236%
Source Step = 97.7262%
Source Step = 97.8288%
Source Step = 97.9314%
vernier = 0.00507967
Source Step = 98.0597%
Source Step = 98.2136%
Source Step = 98.3676%
Source Step = 98.5215%
Source Step = 98.6754%
vernier = 0.0076195
Source Step = 98.7851%
Source Step = 98.8428%
Source Step = 98.9005%
Source Step = 98.9583%
Source Step = 99.016%
vernier = 0.00285731
Source Step = 99.0766%
Source Step = 99.1632%
Source Step = 99.2498%
Source Step = 99.3363%
Source Step = 99.4229%
Source Step = 99.5095%
vernier = 0.00428597
Source Step = 99.6394%
Source Step = 99.7693%
Source Step = 99.8992%
Source Step = 99.9966%
Source Step = 100%
Source Step = 100%
Source Step = 100%
Source Step = 100%
Source Step = 100%
Source Step = 100%
Source Step = 100%
Source Step = 100%
Source Step = 100%
Source Step = 100%
Source Step = 100%
Source Step = 100%
Source Step = 100%
Source Step = 100%
Source Step = 100%
Source Step = 100%
Source Step = 100%
Source Step = 100%
Source Step = 100%
Source stepping succeeded in finding the operating point.


Date: Mon May 08 13:24:05 2023
Total elapsed time: 8.193 seconds.

tnom = 27
temp = 27
method = trap
totiter = 25687
traniter = 0
tranpoints = 0
accept = 0
rejected = 0
matrix size = 284
fillins = 851
solver = Alternate
Matrix Compiler1:    5169 opcodes
Matrix Compiler2: 43.59 KB object code size  7.4/8.0/[3.9]

